*line regulation
.include ../AE01.05.01.017.cir
.param Vsupply=25
.param Iload=0.01
.dc V1 8 {Vsupply} 0.001
.backanno
.op
